*Heading
** Job name: GNIA Model name: GNIA
** Generated by: Abaqus/CAE 2019
*Preprint, echo=NO, model=NO, history=NO, contact=NO
**
** PARTS
**
*Part, name=PART-1
*Node
      1,   499.630005,           0.,           0.
      2,    499.47525,   13.0792198,           0.
      3,   498.990417,     26.15098,           0.
      4,   498.173767,   39.2071304,           0.
      5,   497.023041,   52.2392311,           0.
      6,   495.535645,   65.2385025,           0.
      7,   493.709106,   78.1958389,           0.
      8,   491.541443,   91.1018219,           0.
      9,   489.031158,   103.946777,           0.
     10,   486.177765,   116.720963,           0.
     11,   482.981903,   129.414612,           0.
     12,   479.445251,   142.018143,           0.
     13,    475.57074,   154.522293,           0.
     14,   471.362244,   166.918121,           0.
     15,   466.824524,   179.197144,           0.
     16,   461.963013,   191.351334,           0.
     17,   456.783356,   203.373047,           0.
     18,   451.291412,   215.254959,           0.
     19,   445.492828,   226.989944,           0.
     20,   439.392975,   238.570923,           0.
** ... 14622 like lines cut
*Element, type=S4R
    1,     1,     2,   242,   241
    2,     2,     3,   243,   242
    3,     3,     4,   244,   243
    4,     4,     5,   245,   244
    5,     5,     6,   246,   245
    6,     6,     7,   247,   246
    7,     7,     8,   248,   247
    8,     8,     9,   249,   248
    9,     9,    10,   250,   249
   10,    10,    11,   251,   250
   11,    11,    12,   252,   251
   12,    12,    13,   253,   252
   13,    13,    14,   254,   253
   14,    14,    15,   255,   254
   15,    15,    16,   256,   255
   16,    16,    17,   257,   256
   17,    17,    18,   258,   257
   18,    18,    19,   259,   258
   19,    19,    20,   260,   259
   20,    20,    21,   261,   260
** ... 14380 like lines cut
*Nset, nset=PART-1-RefPt_, internal
 99999,
*Elset, elset=ESHELL, generate
     1,  14400,      1
*Elset, elset=Set-3, generate
     1,  14400,      1
*Orientation, name=Ori-1, system=CYLINDRICAL
          0.,           0.,           0.,           0.,           0.,           1.
1, 90.
** Section: Section-1
*Shell Section, elset=Set-3, material=STEEL, orientation=Ori-1
1., 5
*End Part
**  
**
** ASSEMBLY
**
*Assembly, name=Assembly
**  
*Instance, name=PART-1-1, part=PART-1
*End Instance
**  
*Nset, nset=ALL, instance=PART-1-1, generate
     1,  14640,      1
*Elset, elset=ALLEL, instance=PART-1-1, generate
     1,  14400,      1
*Nset, nset=Monitor-2, instance=PART-1-1
 14640,
*Nset, nset=RP-1, instance=PART-1-1
 99998,
*Nset, nset=RP-2, instance=PART-1-1
 99999,
*Nset, nset=SET-BOTTOM_EDGE, instance=PART-1-1, generate
   1,  240,    1
*Nset, nset=SET-TOP_EDGE, instance=PART-1-1, generate
 14401,  14640,      1
*Nset, nset=_Ref-Pt_PART-1-1_99999, internal, instance=PART-1-1
 99999,
*Nset, nset=_PickedSet12, internal, instance=PART-1-1
 99998,
*Elset, elset=_Surf-1_SPOS, internal, instance=PART-1-1, generate
     1,  14400,      1
*Surface, type=ELEMENT, name=Surf-1
_Surf-1_SPOS, SPOS
*End Assembly
** 
** MATERIALS
** 
** -------------------------------------------------------
** 
** COMMENTS FROM *DAMPING
** ======================
** 
** -------------------------------------------------------
*Material, name=STEEL
*Density
 7.8e-09,
*Elastic
210000., 0.29
*Plastic
180.,0.
** 
** BOUNDARY CONDITIONS
** 
** Name: Disp-BC-1 Type: Displacement/Rotation
*Boundary
SET-TOP_EDGE, 1, 1
SET-TOP_EDGE, 2, 2
SET-TOP_EDGE, 3, 3
** Name: Disp-BC-2 Type: Displacement/Rotation
*Boundary
SET-BOTTOM_EDGE, 1, 1
SET-BOTTOM_EDGE, 2, 2
SET-BOTTOM_EDGE, 3, 3
** ----------------------------------------------------------------
** 
** STEP: Step-1
** 
*Step, name=Step-1, nlgeom=YES, inc=300
*Static, riks
0.01, 1., 1e-50, 0.01, 1., 
** 
** LOADS
** 
** Name: Load-1   Type: Pressure
*Dsload
Surf-1, P, 1.
** 
** OUTPUT REQUESTS
** 
*Restart, write, overlay, frequency=1
*Monitor, dof=3, node=Monitor-2, frequency=1
** 
** FIELD OUTPUT: F-Output-1
** 
*Output, field
*Node Output
RF, U
*Element Output, directions=YES
MISES, P, S
** 
** HISTORY OUTPUT: H-Output-1
** 
*Output, history, variable=PRESELECT
*End Step
