*Heading
** Job name: LBA Model name: LBA
** Generated by: Abaqus/CAE 2019
*Preprint, echo=NO, model=NO, history=NO, contact=NO
**
** PARTS
**
*Part, name=Part-1
*Node
      1,           0.,         500.,           0.
      2,           0.,         500.,         625.
      3,         500.,           0.,         625.
      4,         500.,           0.,           0.
      5,           0.,         500.,        1250.
      6,        -500.,           0.,         625.
      7,        -500.,           0.,        1250.
      8,           0.,        -500.,        1250.
      9,           0.,        -500.,         625.
     10,         500.,           0.,        1250.
     11,           0.,        -500.,           0.
     12,        -500.,           0.,           0.
     13,           0.,         500.,   13.8888893
     14,           0.,         500.,   27.7777786
     15,           0.,         500.,   41.6666679
     16,           0.,         500.,   55.5555573
     17,           0.,         500.,   69.4444427
     18,           0.,         500.,   83.3333359
     19,           0.,         500.,   97.2222214
     20,           0.,         500.,   111.111115
** ... 20364 like lines cut
*Element, type=S4R
   1,    1,   13, 1025,  210
   2,   13,   14, 1026, 1025
   3,   14,   15, 1027, 1026
   4,   15,   16, 1028, 1027
   5,   16,   17, 1029, 1028
   6,   17,   18, 1030, 1029
   7,   18,   19, 1031, 1030
   8,   19,   20, 1032, 1031
   9,   20,   21, 1033, 1032
  10,   21,   22, 1034, 1033
  11,   22,   23, 1035, 1034
  12,   23,   24, 1036, 1035
  13,   24,   25, 1037, 1036
  14,   25,   26, 1038, 1037
  15,   26,   27, 1039, 1038
  16,   27,   28, 1040, 1039
  17,   28,   29, 1041, 1040
  18,   29,   30, 1042, 1041
  19,   30,   31, 1043, 1042
  20,   31,   32, 1044, 1043
** ... 20140 like lines cut
*Nset, nset=Set-1, generate
     1,  20384,      1
*Elset, elset=Set-1, generate
     1,  20160,      1
** Section: Section-1
*Shell Section, elset=Set-1, material=Steel
1., 5
*End Part
**  
**
** ASSEMBLY
**
*Assembly, name=Assembly
**  
*Instance, name=Part-1-1, part=Part-1
*End Instance
**  
*Nset, nset=Set-1, instance=Part-1-1
    1,    4,    5,    7,    8,   10,   11,   12,  156,  157,  158,  159,  160,  161,  162,  163
  164,  165,  166,  167,  168,  169,  170,  171,  172,  173,  174,  175,  176,  177,  178,  179
  180,  181,  182,  183,  184,  185,  186,  187,  188,  189,  190,  191,  192,  193,  194,  195
  196,  197,  198,  199,  200,  201,  202,  203,  204,  205,  206,  207,  208,  209,  210,  354
  355,  356,  357,  358,  359,  360,  361,  362,  363,  364,  365,  366,  367,  368,  369,  370
  371,  372,  373,  374,  375,  376,  377,  378,  379,  380,  381,  382,  383,  384,  385,  386
  387,  388,  389,  390,  391,  392,  393,  394,  395,  396,  397,  398,  399,  400,  401,  402
  403,  404,  405,  406,  407,  408,  552,  553,  554,  555,  556,  557,  558,  559,  560,  561
  562,  563,  564,  565,  566,  567,  568,  569,  570,  571,  572,  573,  574,  575,  576,  577
  578,  579,  580,  581,  582,  583,  584,  585,  586,  587,  588,  589,  590,  591,  592,  593
  594,  595,  596,  597,  598,  599,  600,  601,  602,  603,  604,  605,  606,  750,  751,  752
  753,  754,  755,  756,  757,  758,  759,  760,  761,  762,  763,  764,  765,  766,  767,  768
  769,  770,  771,  772,  773,  774,  775,  776,  777,  778,  779,  780,  781,  782,  783,  784
  785,  786,  787,  788,  789,  790,  791,  792,  793,  794,  795,  796,  797,  798,  799,  800
  801,  802,  803,  804,  805,  806,  807,  808,  809,  810,  811,  812,  813,  814,  815,  816
  817,  818,  819,  820,  821,  822,  823,  824,  825,  826,  827,  828,  829,  830,  831,  832
  833,  834,  835,  836,  837,  838,  839,  840,  841,  842,  843,  844,  845,  846,  847,  848
  849,  850,  851,  852,  853,  854,  855,  856,  857,  858,  859,  860,  861,  862,  863,  864
  865,  866,  867,  868,  869,  870,  871,  872,  873,  874,  875,  876,  877,  878,  879,  880
  881,  882,  883,  884,  885,  886,  887,  888,  889,  890,  891,  892,  893,  894,  895,  896
** ... 8 like lines cut
*Elset, elset=Set-1, instance=Part-1-1
     1,    46,    91,   136,   181,   226,   271,   316,   361,   406,   451,   496,   541,   586,   631,   676
   721,   766,   811,   856,   901,   946,   991,  1036,  1081,  1126,  1171,  1216,  1261,  1306,  1351,  1396
  1441,  1486,  1531,  1576,  1621,  1666,  1711,  1756,  1801,  1846,  1891,  1936,  1981,  2026,  2071,  2116
  2161,  2206,  2251,  2296,  2341,  2386,  2431,  2476,  2521,  2566,  2611,  2656,  2701,  2746,  2791,  2836
  2881,  2926,  2971,  3016,  3061,  3106,  3151,  3196,  3241,  3286,  3331,  3376,  3421,  3466,  3511,  3556
  3601,  3646,  3691,  3736,  3781,  3826,  3871,  3916,  3961,  4006,  4051,  4096,  4141,  4186,  4231,  4276
  4321,  4366,  4411,  4456,  4501,  4546,  4591,  4636,  4681,  4726,  4771,  4816,  4861,  4906,  4951,  4996
  5041,  5086,  5131,  5176,  5221,  5266,  5311,  5356,  5401,  5446,  5491,  5536,  5581,  5626,  5671,  5716
  5761,  5806,  5851,  5896,  5941,  5986,  6031,  6076,  6121,  6166,  6211,  6256,  6301,  6346,  6391,  6436
  6481,  6526,  6571,  6616,  6661,  6706,  6751,  6796,  6841,  6886,  6931,  6976,  7021,  7066,  7111,  7156
  7201,  7246,  7291,  7336,  7381,  7426,  7471,  7516,  7561,  7606,  7651,  7696,  7741,  7786,  7831,  7876
  7921,  7966,  8011,  8056,  8101,  8146,  8191,  8236,  8281,  8326,  8371,  8416,  8461,  8506,  8551,  8596
  8641,  8686,  8731,  8776,  8821,  8866,  8911,  8956,  9001,  9046,  9091,  9136,  9181,  9226,  9271,  9316
  9361,  9406,  9451,  9496,  9541,  9586,  9631,  9676,  9721,  9766,  9811,  9856,  9901,  9946,  9991, 10036
 10125, 10170, 10215, 10260, 10305, 10350, 10395, 10440, 10485, 10530, 10575, 10620, 10665, 10710, 10755, 10800
 10845, 10890, 10935, 10980, 11025, 11070, 11115, 11160, 11205, 11250, 11295, 11340, 11385, 11430, 11475, 11520
 11565, 11610, 11655, 11700, 11745, 11790, 11835, 11880, 11925, 11970, 12015, 12060, 12105, 12150, 12195, 12240
 12285, 12330, 12375, 12420, 12465, 12510, 12555, 12600, 12645, 12690, 12735, 12780, 12825, 12870, 12915, 12960
 13005, 13050, 13095, 13140, 13185, 13230, 13275, 13320, 13365, 13410, 13455, 13500, 13545, 13590, 13635, 13680
 13725, 13770, 13815, 13860, 13905, 13950, 13995, 14040, 14085, 14130, 14175, 14220, 14265, 14310, 14355, 14400
** ... 8 like lines cut
*Elset, elset=_Surf-1_SPOS, internal, instance=Part-1-1, generate
     1,  20160,      1
*Surface, type=ELEMENT, name=Surf-1
_Surf-1_SPOS, SPOS
*End Assembly
** 
** MATERIALS
** 
*Material, name=Steel
*Elastic
210000., 0.29
** ----------------------------------------------------------------
** 
** STEP: Step-1
** 
*Step, name=Step-1, nlgeom=NO, perturbation
*Buckle
10, , 18, 3000
** 
** BOUNDARY CONDITIONS
** 
** Name: BC-1 Type: Displacement/Rotation
*Boundary, op=NEW, load case=1
Set-1, 1, 1
Set-1, 2, 2
Set-1, 3, 3
*Boundary, op=NEW, load case=2
Set-1, 1, 1
Set-1, 2, 2
Set-1, 3, 3
** 
** LOADS
** 
** Name: Load-1   Type: Pressure
*Dsload
Surf-1, P, 1.
** 
** OUTPUT REQUESTS
** 
*Restart, write, frequency=0
** 
** FIELD OUTPUT: F-Output-1
** 
*Output, field, variable=PRESELECT
*End Step
